Midwest-240-Node_s.glm
module tape;

clock {
	starttime '2000-01-01 0:00:00';
	stoptime '2000-01-01 0:00:01';
};

#set suppress_repeat_messages=0;


// module powerflow {
	// solver_method FBS;
	// default_maximum_voltage_error 1e-12;
	// line_capacitance TRUE;
// };



module powerflow {
	solver_method NR;
	NR_iteration_limit 100;
	line_capacitance TRUE;
};



object voltdump {
	filename vdump29.csv;
	mode polar;
};

object currdump {
	filename cdump29.csv;
	mode polar;
};

object node {
	name nbus1001;
	phases ABCN;
	nominal_voltage 7967.433714816836;
};

object node {
	name nbus1002;
	phases ABCN;
	nominal_voltage 7967.433714816836;
};

object node {
	name nbus1003;
	phases ABCN;
	nominal_voltage 7967.433714816836;
};

object node {
	name nbus1004;
	phases ABCN;
	nominal_voltage 7967.433714816836;
};

object node {
	name nbus1005;
	phases ABCN;
	nominal_voltage 7967.433714816836;
};

object node {
	name nbus1006;
	phases ABCN;
	nominal_voltage 7967.433714816836;
};

object node {
	name nbus1007;
	phases ABN;
	nominal_voltage 7967.433714816836;
};

object node {
	name nbus1008;
	phases ABCN;
	nominal_voltage 7967.433714816836;
};

object node {
	name nbus1009;
	phases ABCN;
	nominal_voltage 7967.433714816836;
};

object node {
	name nbus1010;
	phases ABCN;
	nominal_voltage 7967.433714816836;
};

object node {
	name nbus1011;
	phases ABCN;
	nominal_voltage 7967.433714816836;
};

object node {
	name nbus1012;
	phases ABCN;
	nominal_voltage 7967.433714816836;
};

object node {
	name nbus1013;
	phases ABCN;
	nominal_voltage 7967.433714816836;
};

object node {
	name nbus1014;
	phases BN;
	nominal_voltage 7967.433714816836;
};

object node {
	name nbus1015;
	phases BN;
	nominal_voltage 7967.433714816836;
};

object node {
	name nbus1016;
	phases CN;
	nominal_voltage 7967.433714816836;
};

object node {
	name nbus1017;
	phases CN;
	nominal_voltage 7967.433714816836;
};

object node {
	name nbus2001;
	phases ABCN;
	nominal_voltage 7967.433714816836;
};

object node {
	name nbus2002;
	phases ABCN;
	nominal_voltage 7967.433714816836;
};

object node {
	name nbus2003;
	phases ABCN;
	nominal_voltage 7967.433714816836;
};

object node {
	name nbus2004;
	phases ABCN;
	nominal_voltage 7967.433714816836;
};

object node {
	name nbus2005;
	phases ABCN;
	nominal_voltage 7967.433714816836;
};

object node {
	name nbus2006;
	phases ABCN;
	nominal_voltage 7967.433714816836;
};

object node {
	name nbus2007;
	phases AN;
	nominal_voltage 7967.433714816836;
};

object node {
	name nbus2008;
	phases AN;
	nominal_voltage 7967.433714816836;
};

object node {
	name nbus2009;
	phases AN;
	nominal_voltage 7967.433714816836;
};

object node {
	name nbus2010;
	phases ABCN;
	nominal_voltage 7967.433714816836;
};

object node {
	name nbus2011;
	phases ABCN;
	nominal_voltage 7967.433714816836;
};

object node {
	name nbus2012;
	phases ABCN;
	nominal_voltage 7967.433714816836;
};

object node {
	name nbus2013;
	phases ABCN;
	nominal_voltage 7967.433714816836;
};

object node {
	name nbus2014;
	phases ABCN;
	nominal_voltage 7967.433714816836;
};

object node {
	name nbus2015;
	phases BN;
	nominal_voltage 7967.433714816836;
};

object node {
	name nbus2016;
	phases ABCN;
	nominal_voltage 7967.433714816836;
};

object node {
	name nbus2017;
	phases ABCN;
	nominal_voltage 7967.433714816836;
};

object node {
	name nbus2018;
	phases ABCN;
	nominal_voltage 7967.433714816836;
};

object node {
	name nbus2019;
	phases ABCN;
	nominal_voltage 7967.433714816836;
};

object node {
	name nbus2020;
	phases BN;
	nominal_voltage 7967.433714816836;
};

object node {
	name nbus2021;
	phases ABCN;
	nominal_voltage 7967.433714816836;
};

object node {
	name nbus2022;
	phases CN;
	nominal_voltage 7967.433714816836;
};

object node {
	name nbus2023;
	phases CN;
	nominal_voltage 7967.433714816836;
};

object node {
	name nbus2024;
	phases CN;
	nominal_voltage 7967.433714816836;
};

object node {
	name nbus2025;
	phases CN;
	nominal_voltage 7967.433714816836;
};

object node {
	name nbus2026;
	phases ABCN;
	nominal_voltage 7967.433714816836;
};

object node {
	name nbus2027;
	phases ABCN;
	nominal_voltage 7967.433714816836;
};

object node {
	name nbus2028;
	phases ABCN;
	nominal_voltage 7967.433714816836;
};

object node {
	name nbus2029;
	phases ABCN;
	nominal_voltage 7967.433714816836;
};

object node {
	name nbus2030;
	phases ABCN;
	nominal_voltage 7967.433714816836;
};

object node {
	name nbus2031;
	phases ABCN;
	nominal_voltage 7967.433714816836;
};

object node {
	name nbus2032;
	phases ABCN;
	nominal_voltage 7967.433714816836;
};

object node {
	name nbus2033;
	phases ABCN;
	nominal_voltage 7967.433714816836;
};

object node {
	name nbus2034;
	phases ABCN;
	nominal_voltage 7967.433714816836;
};

object node {
	name nbus2035;
	phases ABCN;
	nominal_voltage 7967.433714816836;
};

object node {
	name nbus2036;
	phases ABCN;
	nominal_voltage 7967.433714816836;
};

object node {
	name nbus2037;
	phases ABCN;
	nominal_voltage 7967.433714816836;
};

object node {
	name nbus2038;
	phases ABCN;
	nominal_voltage 7967.433714816836;
};

object node {
	name nbus2039;
	phases ABCN;
	nominal_voltage 7967.433714816836;
};

object node {
	name nbus2040;
	phases ABCN;
	nominal_voltage 7967.433714816836;
};

object node {
	name nbus2041;
	phases ABCN;
	nominal_voltage 7967.433714816836;
};

object node {
	name nbus2042;
	phases ABCN;
	nominal_voltage 7967.433714816836;
};

object node {
	name nbus2043;
	phases ABCN;
	nominal_voltage 7967.433714816836;
};

object node {
	name nbus2044;
	phases ABCN;
	nominal_voltage 7967.433714816836;
};

object node {
	name nbus2045;
	phases BN;
	nominal_voltage 7967.433714816836;
};

object node {
	name nbus2046;
	phases BN;
	nominal_voltage 7967.433714816836;
};

object node {
	name nbus2047;
	phases BN;
	nominal_voltage 7967.433714816836;
};

object node {
	name nbus2048;
	phases BN;
	nominal_voltage 7967.433714816836;
};

object node {
	name nbus2049;
	phases ABCN;
	nominal_voltage 7967.433714816836;
};

object node {
	name nbus2050;
	phases ABCN;
	nominal_voltage 7967.433714816836;
};

object node {
	name nbus2051;
	phases ABCN;
	nominal_voltage 7967.433714816836;
};

object node {
	name nbus2052;
	phases ABCN;
	nominal_voltage 7967.433714816836;
};

object node {
	name nbus2053;
	phases ABCN;
	nominal_voltage 7967.433714816836;
};

object node {
	name nbus2054;
	phases ABCN;
	nominal_voltage 7967.433714816836;
};

object node {
	name nbus2055;
	phases ABCN;
	nominal_voltage 7967.433714816836;
};

object node {
	name nbus2056;
	phases ABCN;
	nominal_voltage 7967.433714816836;
};

object node {
	name nbus2057;
	phases ABCN;
	nominal_voltage 7967.433714816836;
};

object node {
	name nbus2058;
	phases ABCN;
	nominal_voltage 7967.433714816836;
};

object node {
	name nbus2059;
	phases ABCN;
	nominal_voltage 7967.433714816836;
};

object node {
	name nbus2060;
	phases ABCN;
	nominal_voltage 7967.433714816836;
};

object node {
	name nbus3001;
	phases ABCN;
	nominal_voltage 7967.433714816836;
};

object node {
	name nbus3003;
	phases ABCN;
	nominal_voltage 7967.433714816836;
};

object node {
	name nbus3002;
	phases ABCN;
	nominal_voltage 7967.433714816836;
};

object node {
	name nbus3004;
	phases ABCN;
	nominal_voltage 7967.433714816836;
};

object node {
	name nbus3005;
	phases ABCN;
	nominal_voltage 7967.433714816836;
};

object node {
	name nbus3006;
	phases ABCN;
	nominal_voltage 7967.433714816836;
};

object node {
	name nbus3007;
	phases ABCN;
	nominal_voltage 7967.433714816836;
};

object node {
	name nbus3008;
	phases ABCN;
	nominal_voltage 7967.433714816836;
};

object node {
	name nbus3009;
	phases AN;
	nominal_voltage 7967.433714816836;
};

object node {
	name nbus3010;
	phases AN;
	nominal_voltage 7967.433714816836;
};

object node {
	name nbus3011;
	phases AN;
	nominal_voltage 7967.433714816836;
};

object node {
	name nbus3012;
	phases AN;
	nominal_voltage 7967.433714816836;
};

object node {
	name nbus3013;
	phases BN;
	nominal_voltage 7967.433714816836;
};

object node {
	name nbus3014;
	phases BN;
	nominal_voltage 7967.433714816836;
};

object node {
	name nbus3015;
	phases ABCN;
	nominal_voltage 7967.433714816836;
};

object node {
	name nbus3016;
	phases BN;
	nominal_voltage 7967.433714816836;
};

object node {
	name nbus3017;
	phases BN;
	nominal_voltage 7967.433714816836;
};

object node {
	name nbus3018;
	phases CN;
	nominal_voltage 7967.433714816836;
};

object node {
	name nbus3019;
	phases CN;
	nominal_voltage 7967.433714816836;
};

object node {
	name nbus3020;
	phases CN;
	nominal_voltage 7967.433714816836;
};

object node {
	name nbus3021;
	phases CN;
	nominal_voltage 7967.433714816836;
};

object node {
	name nbus3022;
	phases ABCN;
	nominal_voltage 7967.433714816836;
};

object node {
	name nbus3023;
	phases AN;
	nominal_voltage 7967.433714816836;
};

object node {
	name nbus3024;
	phases AN;
	nominal_voltage 7967.433714816836;
};

object node {
	name nbus3025;
	phases AN;
	nominal_voltage 7967.433714816836;
};

object node {
	name nbus3026;
	phases AN;
	nominal_voltage 7967.433714816836;
};

object node {
	name nbus3027;
	phases AN;
	nominal_voltage 7967.433714816836;
};

object node {
	name nbus3028;
	phases AN;
	nominal_voltage 7967.433714816836;
};

object node {
	name nbus3029;
	phases AN;
	nominal_voltage 7967.433714816836;
};

object node {
	name nbus3030;
	phases ABCN;
	nominal_voltage 7967.433714816836;
};

object node {
	name nbus3035;
	phases ABCN;
	nominal_voltage 7967.433714816836;
};

object node {
	name nbus3036;
	phases ABCN;
	nominal_voltage 7967.433714816836;
};

object node {
	name nbus3037;
	phases ABCN;
	nominal_voltage 7967.433714816836;
};

object node {
	name nbus3038;
	phases ABCN;
	nominal_voltage 7967.433714816836;
};

object node {
	name nbus3039;
	phases ABCN;
	nominal_voltage 7967.433714816836;
};

object node {
	name nbus3053;
	phases ABCN;
	nominal_voltage 7967.433714816836;
};

object node {
	name nbus3054;
	phases ABCN;
	nominal_voltage 7967.433714816836;
};

object node {
	name nbus3055;
	phases BN;
	nominal_voltage 7967.433714816836;
};

object node {
	name nbus3056;
	phases BN;
	nominal_voltage 7967.433714816836;
};

object node {
	name nbus3057;
	phases BN;
	nominal_voltage 7967.433714816836;
};

object node {
	name nbus3058;
	phases BN;
	nominal_voltage 7967.433714816836;
};

object node {
	name nbus3059;
	phases BN;
	nominal_voltage 7967.433714816836;
};

object node {
	name nbus3060;
	phases BN;
	nominal_voltage 7967.433714816836;
};

object node {
	name nbus3061;
	phases BN;
	nominal_voltage 7967.433714816836;
};

object node {
	name nbus3062;
	phases BN;
	nominal_voltage 7967.433714816836;
};

object node {
	name nbus3063;
	phases BN;
	nominal_voltage 7967.433714816836;
};

object node {
	name nbus3064;
	phases BN;
	nominal_voltage 7967.433714816836;
};

object node {
	name nbus3065;
	phases BN;
	nominal_voltage 7967.433714816836;
};

object node {
	name nbus3066;
	phases BN;
	nominal_voltage 7967.433714816836;
};

object node {
	name nbus3067;
	phases BN;
	nominal_voltage 7967.433714816836;
};

object node {
	name nbus3040;
	phases ABCN;
	nominal_voltage 7967.433714816836;
};

object node {
	name nbus3044;
	phases CN;
	nominal_voltage 7967.433714816836;
};

object node {
	name nbus3045;
	phases CN;
	nominal_voltage 7967.433714816836;
};

object node {
	name nbus3041;
	phases CN;
	nominal_voltage 7967.433714816836;
};

object node {
	name nbus3042;
	phases CN;
	nominal_voltage 7967.433714816836;
};

object node {
	name nbus3043;
	phases CN;
	nominal_voltage 7967.433714816836;
};

object node {
	name nbus3046;
	phases ABCN;
	nominal_voltage 7967.433714816836;
};

object node {
	name nbus3047;
	phases ABCN;
	nominal_voltage 7967.433714816836;
};

object node {
	name nbus3048;
	phases ABCN;
	nominal_voltage 7967.433714816836;
};

object node {
	name nbus3049;
	phases ABCN;
	nominal_voltage 7967.433714816836;
};

object node {
	name nbus3050;
	phases ABCN;
	nominal_voltage 7967.433714816836;
};

object node {
	name nbus3051;
	phases ABCN;
	nominal_voltage 7967.433714816836;
};

object node {
	name nbus3052;
	phases ABCN;
	nominal_voltage 7967.433714816836;
};

object node {
	name nbus3031;
	phases ABCN;
	nominal_voltage 7967.433714816836;
};

object node {
	name nbus3032;
	phases ABCN;
	nominal_voltage 7967.433714816836;
};

object node {
	name nbus3033;
	phases ABCN;
	nominal_voltage 7967.433714816836;
};

object node {
	name nbus3034;
	phases ABCN;
	nominal_voltage 7967.433714816836;
};

object node {
	name nbus3068;
	phases ABCN;
	nominal_voltage 7967.433714816836;
};

object node {
	name nbus3069;
	phases ABCN;
	nominal_voltage 7967.433714816836;
};

object node {
	name nbus3070;
	phases ABCN;
	nominal_voltage 7967.433714816836;
};

object node {
	name nbus3071;
	phases ABCN;
	nominal_voltage 7967.433714816836;
};

object node {
	name nbus3072;
	phases ABCN;
	nominal_voltage 7967.433714816836;
};

object node {
	name nbus3073;
	phases ABCN;
	nominal_voltage 7967.433714816836;
};

object node {
	name nbus3074;
	phases ABCN;
	nominal_voltage 7967.433714816836;
};

object node {
	name nbus3075;
	phases ABCN;
	nominal_voltage 7967.433714816836;
};

object node {
	name nbus3076;
	phases ABCN;
	nominal_voltage 7967.433714816836;
};

object node {
	name nbus3077;
	phases ABCN;
	nominal_voltage 7967.433714816836;
};

object node {
	name nbus3078;
	phases ABCN;
	nominal_voltage 7967.433714816836;
};

object node {
	name nbus3079;
	phases ABCN;
	nominal_voltage 7967.433714816836;
};

object node {
	name nbus3080;
	phases ABCN;
	nominal_voltage 7967.433714816836;
};

object node {
	name nbus3081;
	phases ABCN;
	nominal_voltage 7967.433714816836;
};

object node {
	name nbus3082;
	phases ABCN;
	nominal_voltage 7967.433714816836;
};

object node {
	name nbus3083;
	phases AN;
	nominal_voltage 7967.433714816836;
};

object node {
	name nbus3084;
	phases AN;
	nominal_voltage 7967.433714816836;
};

object node {
	name nbus3085;
	phases AN;
	nominal_voltage 7967.433714816836;
};

object node {
	name nbus3086;
	phases AN;
	nominal_voltage 7967.433714816836;
};

object node {
	name nbus3087;
	phases AN;
	nominal_voltage 7967.433714816836;
};

object node {
	name nbus3088;
	phases AN;
	nominal_voltage 7967.433714816836;
};

object node {
	name nbus3089;
	phases AN;
	nominal_voltage 7967.433714816836;
};

object node {
	name nbus3090;
	phases AN;
	nominal_voltage 7967.433714816836;
};

object node {
	name nbus3091;
	phases AN;
	nominal_voltage 7967.433714816836;
};

object node {
	name nbus3092;
	phases ABCN;
	nominal_voltage 7967.433714816836;
};

object node {
	name nbus3093;
	phases AN;
	nominal_voltage 7967.433714816836;
};

object node {
	name nbus3094;
	phases AN;
	nominal_voltage 7967.433714816836;
};

object node {
	name nbus3095;
	phases AN;
	nominal_voltage 7967.433714816836;
};

object node {
	name nbus3096;
	phases AN;
	nominal_voltage 7967.433714816836;
};

object node {
	name nbus3097;
	phases AN;
	nominal_voltage 7967.433714816836;
};

object node {
	name nbus3098;
	phases BN;
	nominal_voltage 7967.433714816836;
};

object node {
	name nbus3099;
	phases BN;
	nominal_voltage 7967.433714816836;
};

object node {
	name nbus3100;
	phases ABCN;
	nominal_voltage 7967.433714816836;
};

object node {
	name nbus3101;
	phases CN;
	nominal_voltage 7967.433714816836;
};

object node {
	name nbus3102;
	phases CN;
	nominal_voltage 7967.433714816836;
};

object node {
	name nbus3103;
	phases CN;
	nominal_voltage 7967.433714816836;
};

object node {
	name nbus3104;
	phases CN;
	nominal_voltage 7967.433714816836;
};

object node {
	name nbus3105;
	phases CN;
	nominal_voltage 7967.433714816836;
};

object node {
	name nbus3106;
	phases CN;
	nominal_voltage 7967.433714816836;
};

object node {
	name nbus3107;
	phases ABCN;
	nominal_voltage 7967.433714816836;
};

object node {
	name nbus3108;
	phases AN;
	nominal_voltage 7967.433714816836;
};

object node {
	name nbus3109;
	phases AN;
	nominal_voltage 7967.433714816836;
};

object node {
	name nbus3110;
	phases AN;
	nominal_voltage 7967.433714816836;
};

object node {
	name nbus3111;
	phases AN;
	nominal_voltage 7967.433714816836;
};

object node {
	name nbus3112;
	phases AN;
	nominal_voltage 7967.433714816836;
};

object node {
	name nbus3113;
	phases BN;
	nominal_voltage 7967.433714816836;
};

object node {
	name nbus3114;
	phases BN;
	nominal_voltage 7967.433714816836;
};

object node {
	name nbus3115;
	phases BN;
	nominal_voltage 7967.433714816836;
};

object node {
	name nbus3116;
	phases BN;
	nominal_voltage 7967.433714816836;
};

object node {
	name nbus3117;
	phases BN;
	nominal_voltage 7967.433714816836;
};

object node {
	name nbus3118;
	phases ABCN;
	nominal_voltage 7967.433714816836;
};

object node {
	name nbus3119;
	phases BN;
	nominal_voltage 7967.433714816836;
};

object node {
	name nbus3120;
	phases BN;
	nominal_voltage 7967.433714816836;
};

object node {
	name nbus3121;
	phases BN;
	nominal_voltage 7967.433714816836;
};

object node {
	name nbus3122;
	phases BN;
	nominal_voltage 7967.433714816836;
};

object node {
	name nbus3123;
	phases BN;
	nominal_voltage 7967.433714816836;
};

object node {
	name nbus3124;
	phases BN;
	nominal_voltage 7967.433714816836;
};

object node {
	name nbus3125;
	phases BN;
	nominal_voltage 7967.433714816836;
};

object node {
	name nbus3126;
	phases BN;
	nominal_voltage 7967.433714816836;
};

object node {
	name nbus3127;
	phases BN;
	nominal_voltage 7967.433714816836;
};

object node {
	name nbus3128;
	phases BN;
	nominal_voltage 7967.433714816836;
};

object node {
	name nbus3129;
	phases BN;
	nominal_voltage 7967.433714816836;
};

object node {
	name nbus3130;
	phases BN;
	nominal_voltage 7967.433714816836;
};

object node {
	name nbus3131;
	phases BN;
	nominal_voltage 7967.433714816836;
};

object node {
	name nbus3132;
	phases AN;
	nominal_voltage 7967.433714816836;
};

object node {
	name nbus3133;
	phases AN;
	nominal_voltage 7967.433714816836;
};

object node {
	name nbus3134;
	phases AN;
	nominal_voltage 7967.433714816836;
};

object node {
	name nbus3135;
	phases AN;
	nominal_voltage 7967.433714816836;
};

object node {
	name nbus3136;
	phases AN;
	nominal_voltage 7967.433714816836;
};

object node {
	name nbus3137;
	phases AN;
	nominal_voltage 7967.433714816836;
};

object node {
	name nbus3138;
	phases AN;
	nominal_voltage 7967.433714816836;
};

object node {
	name nbus3139;
	phases AN;
	nominal_voltage 7967.433714816836;
};

object node {
	name nbus3140;
	phases CN;
	nominal_voltage 7967.433714816836;
};

object node {
	name nbus3141;
	phases CN;
	nominal_voltage 7967.433714816836;
};

object node {
	name nbus3142;
	phases CN;
	nominal_voltage 7967.433714816836;
};

object node {
	name nbus3143;
	phases CN;
	nominal_voltage 7967.433714816836;
};

object node {
	name nbus3148;
	phases CN;
	nominal_voltage 7967.433714816836;
};

object node {
	name nbus3149;
	phases CN;
	nominal_voltage 7967.433714816836;
};

object node {
	name nbus3150;
	phases CN;
	nominal_voltage 7967.433714816836;
};

object node {
	name nbus3151;
	phases CN;
	nominal_voltage 7967.433714816836;
};

object node {
	name nbus3152;
	phases CN;
	nominal_voltage 7967.433714816836;
};

object node {
	name nbus3153;
	phases CN;
	nominal_voltage 7967.433714816836;
};

object node {
	name nbus3154;
	phases CN;
	nominal_voltage 7967.433714816836;
};

object node {
	name nbus3155;
	phases CN;
	nominal_voltage 7967.433714816836;
};

object node {
	name nbus3156;
	phases CN;
	nominal_voltage 7967.433714816836;
};

object node {
	name nbus3144;
	phases CN;
	nominal_voltage 7967.433714816836;
};

object node {
	name nbus3145;
	phases CN;
	nominal_voltage 7967.433714816836;
};

object node {
	name nbus3146;
	phases CN;
	nominal_voltage 7967.433714816836;
};

object node {
	name nbus3147;
	phases CN;
	nominal_voltage 7967.433714816836;
};

object node {
	name nbus3157;
	phases CN;
	nominal_voltage 7967.433714816836;
};

object node {
	name nbus3158;
	phases CN;
	nominal_voltage 7967.433714816836;
};

object node {
	name nbus3159;
	phases CN;
	nominal_voltage 7967.433714816836;
};

object node {
	name nbus3160;
	phases CN;
	nominal_voltage 7967.433714816836;
};

object node {
	name nbus3161;
	phases CN;
	nominal_voltage 7967.433714816836;
};

object node {
	name nbus3162;
	phases CN;
	nominal_voltage 7967.433714816836;
};

object node {
	name nbus1;
	phases ABCN;
	nominal_voltage 7967.433714816836;
};


object node {
	name GLMswing;
	phases ABCN;
	bustype SWING;
	nominal_voltage 39837.16857408418;
};

object node {
	name neq_source_bus;
	phases ABCN;
	nominal_voltage 39837.16857408418;
};

object underground_line {
	length 5280;
	configuration line_Vsource;
	name vsource_inpedance;
	from GLMswing;
	to neq_source_bus;
	phases ABC;
};

object node {
	name nbus_xfmr;
	phases ABCN;
	nominal_voltage 7967.433714816836;
};

object node {
	name nt_bus1003_l;
	phases ABCN;
	nominal_voltage 120;
};

object node {
	name nt_bus1004_l;
	phases ABCN;
	nominal_voltage 120.0;
};

object node {
	name nt_bus1005_l;
	phases ABCN;
	nominal_voltage 120;
};

object node {
	name nt_bus1006_l;
	phases ABD;
	nominal_voltage 120;
};

object node {
	name nt_bus1007_l;
	phases ABD;
	nominal_voltage 120;
};

object node {
	name nt_bus1008_l;
	phases ABCN;
	nominal_voltage 120;
};

object node {
	name nt_bus1009_l;
	phases ABCN;
	nominal_voltage 120;
};

object node {
	name nt_bus1010_l;
	phases ABCN;
	nominal_voltage 120;
};

object triplex_node {
	name nt_bus1011_l;
	phases AS;
	nominal_voltage 120;
};

object triplex_node {
	name nt_bus1012_l;
	phases BS;
	nominal_voltage 120;
};

object node {
	name nt_bus1013_l;
	phases ABCN;
	nominal_voltage 120;
};

object triplex_node {
	name nt_bus1014_l;
	phases BS;
	nominal_voltage 120;
};

object triplex_node {
	name nt_bus1015_l;
	phases BS;
	nominal_voltage 120;
};

object triplex_node {
	name nt_bus1016_l;
	phases CS;
	nominal_voltage 120;
};

object triplex_node {
	name nt_bus1017_l;
	phases CS;
	nominal_voltage 120;
};

object node {
	name nt_bus2002_l;
	phases ABCN;
	nominal_voltage 120;
};

object node {
	name nt_bus2003_l;
	phases ABCN;
	nominal_voltage 120;
};

object node {
	name nt_bus2005_l;
	phases ABCN;
	nominal_voltage 120;
};

object triplex_node {
	name nt_bus2008_l;
	phases AS;
	nominal_voltage 120;
};

object triplex_node {
	name nt_bus2009_l;
	phases AS;
	nominal_voltage 120;
};

object node {
	name nt_bus2010_l;
	phases ABCN;
	nominal_voltage 120;
};

object node {
	name nt_bus2011_l;
	phases ABCN;
	nominal_voltage 120;
};

object triplex_node {
	name nt_bus2014_l;
	phases BS;
	nominal_voltage 120;
};

object triplex_node {
	name nt_bus2015_l;
	phases BS;
	nominal_voltage 120;
};

object triplex_node {
	name nt_bus2016_l;
	phases BS;
	nominal_voltage 120;
};

object triplex_node {
	name nt_bus2017_l;
	phases BS;
	nominal_voltage 120;
};

object triplex_node {
	name nt_bus2018_l;
	phases BS;
	nominal_voltage 120;
};

object triplex_node {
	name nt_bus2020_l;
	phases BS;
	nominal_voltage 120;
};

object triplex_node {
	name nt_bus2022_l;
	phases CS;
	nominal_voltage 120;
};

object triplex_node {
	name nt_bus2023_l;
	phases CS;
	nominal_voltage 120;
};

object triplex_node {
	name nt_bus2024_l;
	phases CS;
	nominal_voltage 120;
};

object triplex_node {
	name nt_bus2025_l;
	phases CS;
	nominal_voltage 120;
};

object triplex_node {
	name nt_bus2028_l;
	phases AS;
	nominal_voltage 120;
};

object node {
	name nt_bus2029_l;
	phases ABCN;
	nominal_voltage 120;
};

object node {
	name nt_bus2030_l;
	phases ABCN;
	nominal_voltage 120;
};

object triplex_node {
	name nt_bus2031_l;
	phases AS;
	nominal_voltage 120;
};

object node {
	name nt_bus2032_l;
	phases ABCN;
	nominal_voltage 120;
};

object node {
	name nt_bus2034_l;
	phases ABCN;
	nominal_voltage 120;
};

object node {
	name nt_bus2035_l;
	phases ABCN;
	nominal_voltage 120;
};

object node {
	name nt_bus2037_l;
	phases ABCN;
	nominal_voltage 120;
};

object node {
	name nt_bus2040_l;
	phases ABCN;
	nominal_voltage 120;
};

object node {
	name nt_bus2041_l;
	phases ABCN;
	nominal_voltage 120;
};

object node {
	name nt_bus2042_l;
	phases ABCN;
	nominal_voltage 120;
};

object node {
	name nt_bus2043_l;
	phases ABCN;
	nominal_voltage 120;
};

object triplex_node {
	name nt_bus2045_l;
	phases BS;
	nominal_voltage 120;
};

object triplex_node {
	name nt_bus2046_l;
	phases BS;
	nominal_voltage 120;
};

object triplex_node {
	name nt_bus2047_l;
	phases BS;
	nominal_voltage 120;
};

object triplex_node {
	name nt_bus2048_l;
	phases BS;
	nominal_voltage 120;
};

object triplex_node {
	name nt_bus2049_l;
	phases CS;
	nominal_voltage 120;
};

object triplex_node {
	name nt_bus2050_l;
	phases CS;
	nominal_voltage 120;
};

object triplex_node {
	name nt_bus2051_l;
	phases CS;
	nominal_voltage 120;
};

object node {
	name nt_bus2052_l;
	phases ABCN;
	nominal_voltage 120;
};

object node {
	name nt_bus2053_l;
	phases ABCN;
	nominal_voltage 120;
};

object triplex_node {
	name nt_bus2054_l;
	phases AS;
	nominal_voltage 120;
};

object triplex_node {
	name nt_bus2055_l;
	phases AS;
	nominal_voltage 120;
};

object triplex_node {
	name nt_bus2056_l;
	phases AS;
	nominal_voltage 120;
};

object node {
	name nt_bus2058_l;
	phases ABCN;
	nominal_voltage 120;
};

object triplex_node {
	name nt_bus2059_l;
	phases BS;
	nominal_voltage 120;
};

object triplex_node {
	name nt_bus2060_l;
	phases BS;
	nominal_voltage 120;
};

object node {
	name nt_bus3002_l;
	phases ABCN;
	nominal_voltage 120;
};

object node {
	name nt_bus3004_l;
	phases ABCN;
	nominal_voltage 120;
};

object node {
	name nt_bus3006_l;
	phases ABCN;
	nominal_voltage 120;
};

object node {
	name nt_bus3007_l;
	phases ABCN;
	nominal_voltage 120;
};

object triplex_node {
	name nt_bus3009_l;
	phases AS;
	nominal_voltage 120;
};

object triplex_node {
	name nt_bus3010_l;
	phases AS;
	nominal_voltage 120;
};

object triplex_node {
	name nt_bus3011_l;
	phases AS;
	nominal_voltage 120;
};

object triplex_node {
	name nt_bus3012_l;
	phases AS;
	nominal_voltage 120;
};

object triplex_node {
	name nt_bus3013_l;
	phases BS;
	nominal_voltage 120;
};

object triplex_node {
	name nt_bus3014_l;
	phases BS;
	nominal_voltage 120;
};

object triplex_node {
	name nt_bus3016_l;
	phases BS;
	nominal_voltage 120;
};

object triplex_node {
	name nt_bus3017_l;
	phases BS;
	nominal_voltage 120;
};

object triplex_node {
	name nt_bus3018_l;
	phases CS;
	nominal_voltage 120;
};

object triplex_node {
	name nt_bus3019_l;
	phases CS;
	nominal_voltage 120;
};

object triplex_node {
	name nt_bus3020_l;
	phases CS;
	nominal_voltage 120;
};

object triplex_node {
	name nt_bus3021_l;
	phases CS;
	nominal_voltage 120;
};

object triplex_node {
	name nt_bus3023_l;
	phases AS;
	nominal_voltage 120;
};

object triplex_node {
	name nt_bus3024_l;
	phases AS;
	nominal_voltage 120;
};

object triplex_node {
	name nt_bus3025_l;
	phases AS;
	nominal_voltage 120;
};

object triplex_node {
	name nt_bus3026_l;
	phases AS;
	nominal_voltage 120;
};

object triplex_node {
	name nt_bus3027_l;
	phases AS;
	nominal_voltage 120;
};

object triplex_node {
	name nt_bus3028_l;
	phases AS;
	nominal_voltage 120;
};

object triplex_node {
	name nt_bus3029_l;
	phases AS;
	nominal_voltage 120;
};

object node {
	name nt_bus3031_l;
	phases ABCN;
	nominal_voltage 120;
};

object node {
	name nt_bus3032_l;
	phases ABCN;
	nominal_voltage 120;
};

object node {
	name nt_bus3033_l;
	phases ABCN;
	nominal_voltage 120;
};

object node {
	name nt_bus3034_l;
	phases ABCN;
	nominal_voltage 120;
};

object node {
	name nt_bus3035_l;
	phases ABCN;
	nominal_voltage 120;
};

object node {
	name nt_bus3036_l;
	phases ABCN;
	nominal_voltage 120;
};

object node {
	name nt_bus3037_l;
	phases ABCN;
	nominal_voltage 120;
};

object node {
	name nt_bus3038_l;
	phases ABCN;
	nominal_voltage 120;
};

object node {
	name nt_bus3039_l;
	phases ABCN;
	nominal_voltage 120;
};

object triplex_node {
	name nt_bus3041_l;
	phases CS;
	nominal_voltage 120;
};

object triplex_node {
	name nt_bus3042_l;
	phases CS;
	nominal_voltage 120;
};

object triplex_node {
	name nt_bus3043_l;
	phases CS;
	nominal_voltage 120;
};

object triplex_node {
	name nt_bus3044_l;
	phases CS;
	nominal_voltage 120;
};

object triplex_node {
	name nt_bus3045_l;
	phases CS;
	nominal_voltage 120;
};

object node {
	name nt_bus3047_l;
	phases ABCN;
	nominal_voltage 120;
};

object node {
	name nt_bus3048_l;
	phases ABCN;
	nominal_voltage 120;
};

object node {
	name nt_bus3049_l;
	phases ABCN;
	nominal_voltage 120;
};

object node {
	name nt_bus3050_l;
	phases ABCN;
	nominal_voltage 120;
};

object node {
	name nt_bus3051_l;
	phases ABCN;
	nominal_voltage 120;
};

object node {
	name nt_bus3052_l;
	phases ABCN;
	nominal_voltage 120;
};

object node {
	name nt_bus3054_l;
	phases ABCN;
	nominal_voltage 120;
};

object triplex_node {
	name nt_bus3056_l;
	phases BS;
	nominal_voltage 120;
};

object triplex_node {
	name nt_bus3057_l;
	phases BS;
	nominal_voltage 120;
};

object triplex_node {
	name nt_bus3058_l;
	phases BS;
	nominal_voltage 120;
};

object triplex_node {
	name nt_bus3059_l;
	phases BS;
	nominal_voltage 120;
};

object triplex_node {
	name nt_bus3060_l;
	phases BS;
	nominal_voltage 120;
};

object triplex_node {
	name nt_bus3061_l;
	phases BS;
	nominal_voltage 120;
};

object triplex_node {
	name nt_bus3062_l;
	phases BS;
	nominal_voltage 120;
};

object triplex_node {
	name nt_bus3063_l;
	phases BS;
	nominal_voltage 120;
};

object triplex_node {
	name nt_bus3064_l;
	phases BS;
	nominal_voltage 120;
};

object triplex_node {
	name nt_bus3065_l;
	phases BS;
	nominal_voltage 120;
};

object triplex_node {
	name nt_bus3066_l;
	phases BS;
	nominal_voltage 120;
};

object triplex_node {
	name nt_bus3067_l;
	phases BS;
	nominal_voltage 120;
};

object node {
	name nt_bus3070_l;
	phases ABCN;
	nominal_voltage 120;
};

object node {
	name nt_bus3071_l;
	phases ABCN;
	nominal_voltage 120;
};

object node {
	name nt_bus3072_l;
	phases ABCN;
	nominal_voltage 120;
};

object node {
	name nt_bus3073_l;
	phases ABCN;
	nominal_voltage 120;
};

object node {
	name nt_bus3074_l;
	phases ABCN;
	nominal_voltage 120;
};

object node {
	name nt_bus3077_l;
	phases ABCN;
	nominal_voltage 120;
};

object node {
	name nt_bus3078_l;
	phases ABCN;
	nominal_voltage 120;
};

object node {
	name nt_bus3081_l;
	phases ABCN;
	nominal_voltage 120;
};

object triplex_node {
	name nt_bus3083_l;
	phases AS;
	nominal_voltage 120;
};

object triplex_node {
	name nt_bus3084_l;
	phases AS;
	nominal_voltage 120;
};

object triplex_node {
	name nt_bus3085_l;
	phases AS;
	nominal_voltage 120;
};

object triplex_node {
	name nt_bus3086_l;
	phases AS;
	nominal_voltage 120;
};

object triplex_node {
	name nt_bus3087_l;
	phases AS;
	nominal_voltage 120;
};

object triplex_node {
	name nt_bus3088_l;
	phases AS;
	nominal_voltage 120;
};

object triplex_node {
	name nt_bus3089_l;
	phases AS;
	nominal_voltage 120;
};

object triplex_node {
	name nt_bus3090_l;
	phases AS;
	nominal_voltage 120;
};

object triplex_node {
	name nt_bus3091_l;
	phases AS;
	nominal_voltage 120;
};

object triplex_node {
	name nt_bus3093_l;
	phases AS;
	nominal_voltage 120;
};

object triplex_node {
	name nt_bus3094_l;
	phases AS;
	nominal_voltage 120;
};

object triplex_node {
	name nt_bus3095_l;
	phases AS;
	nominal_voltage 120;
};

object triplex_node {
	name nt_bus3096_l;
	phases AS;
	nominal_voltage 120;
};

object triplex_node {
	name nt_bus3097_l;
	phases AS;
	nominal_voltage 120;
};

object triplex_node {
	name nt_bus3098_l;
	phases BS;
	nominal_voltage 120;
};

object triplex_node {
	name nt_bus3099_l;
	phases BS;
	nominal_voltage 120;
};

object triplex_node {
	name nt_bus3101_l;
	phases CS;
	nominal_voltage 120;
};

object triplex_node {
	name nt_bus3102_l;
	phases CS;
	nominal_voltage 120;
};

object triplex_node {
	name nt_bus3103_l;
	phases CS;
	nominal_voltage 120;
};

object triplex_node {
	name nt_bus3104_l;
	phases CS;
	nominal_voltage 120;
};

object triplex_node {
	name nt_bus3105_l;
	phases CS;
	nominal_voltage 120;
};

object triplex_node {
	name nt_bus3106_l;
	phases CS;
	nominal_voltage 120;
};

object triplex_node {
	name nt_bus3108_l;
	phases AS;
	nominal_voltage 120;
};

object triplex_node {
	name nt_bus3109_l;
	phases AS;
	nominal_voltage 120;
};

object triplex_node {
	name nt_bus3110_l;
	phases AS;
	nominal_voltage 120;
};

object triplex_node {
	name nt_bus3111_l;
	phases AS;
	nominal_voltage 120;
};

object triplex_node {
	name nt_bus3112_l;
	phases AS;
	nominal_voltage 120;
};

object triplex_node {
	name nt_bus3114_l;
	phases BS;
	nominal_voltage 120;
};

object triplex_node {
	name nt_bus3115_l;
	phases BS;
	nominal_voltage 120;
};

object triplex_node {
	name nt_bus3116_l;
	phases BS;
	nominal_voltage 120;
};

object triplex_node {
	name nt_bus3117_l;
	phases BS;
	nominal_voltage 120;
};

object triplex_node {
	name nt_bus3120_l;
	phases BS;
	nominal_voltage 120;
};

object triplex_node {
	name nt_bus3121_l;
	phases BS;
	nominal_voltage 120;
};

object triplex_node {
	name nt_bus3122_l;
	phases BS;
	nominal_voltage 120;
};

object triplex_node {
	name nt_bus3123_l;
	phases BS;
	nominal_voltage 120;
};

object triplex_node {
	name nt_bus3124_l;
	phases BS;
	nominal_voltage 120;
};

object triplex_node {
	name nt_bus3125_l;
	phases BS;
	nominal_voltage 120;
};

object triplex_node {
	name nt_bus3126_l;
	phases BS;
	nominal_voltage 120;
};

object triplex_node {
	name nt_bus3127_l;
	phases BS;
	nominal_voltage 120;
};

object triplex_node {
	name nt_bus3128_l;
	phases BS;
	nominal_voltage 120;
};

object triplex_node {
	name nt_bus3129_l;
	phases BS;
	nominal_voltage 120;
};

object triplex_node {
	name nt_bus3130_l;
	phases BS;
	nominal_voltage 120;
};

object triplex_node {
	name nt_bus3131_l;
	phases BS;
	nominal_voltage 120;
};

object triplex_node {
	name nt_bus3132_l;
	phases AS;
	nominal_voltage 120;
};

object triplex_node {
	name nt_bus3134_l;
	phases AS;
	nominal_voltage 120;
};

object triplex_node {
	name nt_bus3135_l;
	phases AS;
	nominal_voltage 120;
};

object triplex_node {
	name nt_bus3136_l;
	phases AS;
	nominal_voltage 120;
};

object triplex_node {
	name nt_bus3137_l;
	phases AS;
	nominal_voltage 120;
};

object triplex_node {
	name nt_bus3138_l;
	phases AS;
	nominal_voltage 120;
};

object triplex_node {
	name nt_bus3139_l;
	phases AS;
	nominal_voltage 120;
};

object triplex_node {
	name nt_bus3141_l;
	phases CS;
	nominal_voltage 120;
};

object triplex_node {
	name nt_bus3142_l;
	phases CS;
	nominal_voltage 120;
};

object triplex_node {
	name nt_bus3143_l;
	phases CS;
	nominal_voltage 120;
};

object triplex_node {
	name nt_bus3144_l;
	phases CS;
	nominal_voltage 120;
};

object triplex_node {
	name nt_bus3145_l;
	phases CS;
	nominal_voltage 120;
};

object triplex_node {
	name nt_bus3146_l;
	phases CS;
	nominal_voltage 120;
};

object triplex_node {
	name nt_bus3147_l;
	phases CS;
	nominal_voltage 120;
};

object triplex_node {
	name nt_bus3148_l;
	phases CS;
	nominal_voltage 120;
};

object triplex_node {
	name nt_bus3149_l;
	phases CS;
	nominal_voltage 120;
};

object triplex_node {
	name nt_bus3150_l;
	phases CS;
	nominal_voltage 120;
};

object triplex_node {
	name nt_bus3151_l;
	phases CS;
	nominal_voltage 120;
};

object triplex_node {
	name nt_bus3152_l;
	phases CS;
	nominal_voltage 120;
};

object triplex_node {
	name nt_bus3153_l;
	phases CS;
	nominal_voltage 120;
};

object triplex_node {
	name nt_bus3154_l;
	phases CS;
	nominal_voltage 120;
};

object triplex_node {
	name nt_bus3155_l;
	phases CS;
	nominal_voltage 120;
};

object triplex_node {
	name nt_bus3157_l;
	phases CS;
	nominal_voltage 120;
};

object triplex_node {
	name nt_bus3158_l;
	phases CS;
	nominal_voltage 120;
};

object triplex_node {
	name nt_bus3159_l;
	phases CS;
	nominal_voltage 120;
};

object triplex_node {
	name nt_bus3160_l;
	phases CS;
	nominal_voltage 120;
};

object triplex_node {
	name nt_bus3161_l;
	phases CS;
	nominal_voltage 120;
};

object triplex_node {
	name nt_bus3162_l;
	phases CS;
	nominal_voltage 120;
};

object capacitor {
	name ncap_201;
	nominal_voltage 7967.433714816836;
	parent nbus2038;
	capacitor_A 16666.666666666666;
	switchA CLOSED;
	capacitor_B 16666.666666666666;
	switchB CLOSED;
	capacitor_C 16666.666666666666;
	switchC CLOSED;
	phases ABCN;
	phases_connected ABCN;
	control MANUAL;
};

object capacitor {
	name ncap_301;
	nominal_voltage 7967.433714816836;
	parent nbus3079;
	capacitor_A 16666.666666666666;
	switchA CLOSED;
	capacitor_B 16666.666666666666;
	switchB CLOSED;
	capacitor_C 16666.666666666666;
	switchC CLOSED;
	phases ABCN;
	phases_connected ABCN;
	control MANUAL;
};

object load {
	name nload_load_1003;
	nominal_voltage 120;
	parent nt_bus1003_l;
	constant_power_A 5096.666666666667+1277.345072121511j;
	constant_power_B 5096.666666666667+1277.345072121511j;
	constant_power_C 5096.666666666667+1277.345072121511j;
};

object load {
	name nload_load_1004;
	nominal_voltage 120.0;
	parent nt_bus1004_l;
	constant_power_A 2297.3333333333335+1112.64931551416j;
	constant_power_B 2297.3333333333335+1112.64931551416j;
	constant_power_C 2297.3333333333335+1112.64931551416j;
};

object load {
	name nload_load_1005;
	nominal_voltage 120;
	parent nt_bus1005_l;
	constant_power_A 1638.6666666666667+647.6425072952574j;
	constant_power_B 1638.6666666666667+647.6425072952574j;
	constant_power_C 1638.6666666666667+647.6425072952574j;
};

object load {
	name nload_load_1006;
	nominal_voltage 120;
	parent nt_bus1006_l;
	constant_power_AB 5040+2296.291839688011j;
};

object load {
	name nload_load_1007;
	nominal_voltage 120;
	parent nt_bus1007_l;
	constant_power_AB 4163+2016.23292243998j;
};

object load {
	name nload_load_1008;
	nominal_voltage 120;
	parent nt_bus1008_l;
	constant_power_A 4698.666666666667+2140.7757785874473j;
	constant_power_B 4698.666666666667+2140.7757785874473j;
	constant_power_C 4698.666666666667+2140.7757785874473j;
};

object load {
	name nload_load_1009;
	nominal_voltage 120;
	parent nt_bus1009_l;
	constant_power_A 5693.666666666666+2250.2810551485536j;
	constant_power_B 5693.666666666666+2250.2810551485536j;
	constant_power_C 5693.666666666666+2250.2810551485536j;
};

object load {
	name nload_load_1010;
	nominal_voltage 120;
	parent nt_bus1010_l;
	constant_power_A 2378.6666666666665+940.1092213301375j;
	constant_power_B 2378.6666666666665+940.1092213301375j;
	constant_power_C 2378.6666666666665+940.1092213301375j;
};

object triplex_load {
	name nload_load_1011;
	nominal_voltage 120;
	parent nt_bus1011_l;
	phases AS;
	constant_power_12 3125+1027.1378286839472j;
};

object triplex_load {
	name nload_load_1012;
	nominal_voltage 120;
	parent nt_bus1012_l;
	phases BS;
	constant_power_12 3083+1118.9795800587706j;
};

object load {
	name nload_load_1013;
	nominal_voltage 120;
	parent nt_bus1013_l;
	constant_power_A 512.3333333333333+149.43055555555554j;
	constant_power_B 512.3333333333333+149.43055555555554j;
	constant_power_C 512.3333333333333+149.43055555555554j;
};

object triplex_load {
	name nload_load_1014;
	nominal_voltage 120;
	parent nt_bus1014_l;
	phases BS;
	constant_power_12 458+195.1071829903818j;
};

object triplex_load {
	name nload_load_1015;
	nominal_voltage 120;
	parent nt_bus1015_l;
	phases BS;
	constant_power_12 793+161.0255178827654j;
};

object triplex_load {
	name nload_load_1016;
	nominal_voltage 120;
	parent nt_bus1016_l;
	phases CS;
	constant_power_12 3083+1493.1650492150993j;
};

object triplex_load {
	name nload_load_1017;
	nominal_voltage 120;
	parent nt_bus1017_l;
	phases CS;
	constant_power_12 2131+621.5416666666667j;
};

object load {
	name nload_load_2002;
	nominal_voltage 120;
	parent nt_bus2002_l;
	constant_power_A 9313.333333333334+3380.288622212353j;
	constant_power_B 9313.333333333334+3380.288622212353j;
	constant_power_C 9313.333333333334+3380.288622212353j;
};

object load {
	name nload_load_2003;
	nominal_voltage 120;
	parent nt_bus2003_l;
	constant_power_A 4762+1193.469699171217j;
	constant_power_B 4762+1193.469699171217j;
	constant_power_C 4762+1193.469699171217j;
};

object load {
	name nload_load_2005;
	nominal_voltage 120;
	parent nt_bus2005_l;
	constant_power_A 2982.333333333333+1178.6935542657989j;
	constant_power_B 2982.333333333333+1178.6935542657989j;
	constant_power_C 2982.333333333333+1178.6935542657989j;
};

object triplex_load {
	name nload_load_2008;
	nominal_voltage 120;
	parent nt_bus2008_l;
	phases AS;
	constant_power_12 2067+941.7530223482378j;
};

object triplex_load {
	name nload_load_2009;
	nominal_voltage 120;
	parent nt_bus2009_l;
	phases AS;
	constant_power_12 1246+492.45071038846055j;
};

object load {
	name nload_load_2010;
	nominal_voltage 120;
	parent nt_bus2010_l;
	constant_power_A 763.3333333333333+301.6886374503944j;
	constant_power_B 763.3333333333333+301.6886374503944j;
	constant_power_C 763.3333333333333+301.6886374503944j;
};

object load {
	name nload_load_2011;
	nominal_voltage 120;
	parent nt_bus2011_l;
	constant_power_A 1789.3333333333335+588.1254255333793j;
	constant_power_B 1789.3333333333335+588.1254255333793j;
	constant_power_C 1789.3333333333335+588.1254255333793j;
};

object triplex_load {
	name nload_load_2014;
	nominal_voltage 120;
	parent nt_bus2014_l;
	phases BS;
	constant_power_12 2816+821.3333333333334j;
};

object triplex_load {
	name nload_load_2015;
	nominal_voltage 120;
	parent nt_bus2015_l;
	phases BS;
	constant_power_12 1490+634.7373420429452j;
};

object triplex_load {
	name nload_load_2016;
	nominal_voltage 120;
	parent nt_bus2016_l;
	phases BS;
	constant_power_12 1640+333.016203439767j;
};

object triplex_load {
	name nload_load_2017;
	nominal_voltage 120;
	parent nt_bus2017_l;
	phases BS;
	constant_power_12 5125+2482.150787293994j;
};

object triplex_load {
	name nload_load_2018;
	nominal_voltage 120;
	parent nt_bus2018_l;
	phases BS;
	constant_power_12 2809+819.2916666666667j;
};

object triplex_load {
	name nload_load_2020;
	nominal_voltage 120;
	parent nt_bus2020_l;
	phases BS;
	constant_power_12 3086+1014.3191485819716j;
};

object triplex_load {
	name nload_load_2022;
	nominal_voltage 120;
	parent nt_bus2022_l;
	phases CS;
	constant_power_12 2728+1242.9135195771614j;
};

object triplex_load {
	name nload_load_2023;
	nominal_voltage 120;
	parent nt_bus2023_l;
	phases CS;
	constant_power_12 728+147.8267049415551j;
};

object triplex_load {
	name nload_load_2024;
	nominal_voltage 120;
	parent nt_bus2024_l;
	phases CS;
	constant_power_12 2549+363.212828405741j;
};

object triplex_load {
	name nload_load_2025;
	nominal_voltage 120;
	parent nt_bus2025_l;
	phases CS;
	constant_power_12 2701+1067.503506227313j;
};

object load {
	name nload_load_2029;
	nominal_voltage 120;
	parent nt_bus2029_l;
	constant_power_A 3142.333333333333+638.0779979322527j;
	constant_power_B 3142.333333333333+638.0779979322527j;
	constant_power_C 3142.333333333333+638.0779979322527j;
};

object load {
	name nload_load_2030;
	nominal_voltage 120;
	parent nt_bus2030_l;
	constant_power_A 1777.0000000000002+860.640380296864j;
	constant_power_B 1777.0000000000002+860.640380296864j;
	constant_power_C 1777.0000000000002+860.640380296864j;
};

object triplex_load {
	name nload_load_2031;
	nominal_voltage 120;
	parent nt_bus2031_l;
	phases AS;
	constant_power_12 3279+1588.0921817633184j;
};

object load {
	name nload_load_2032;
	nominal_voltage 120;
	parent nt_bus2032_l;
	constant_power_A 739+336.69834712885716j;
	constant_power_B 739+336.69834712885716j;
	constant_power_C 739+336.69834712885716j;
};

object load {
	name nload_load_2034;
	nominal_voltage 120;
	parent nt_bus2034_l;
	constant_power_A 1207+584.576780539288j;
	constant_power_B 1207+584.576780539288j;
	constant_power_C 1207+584.576780539288j;
};

object load {
	name nload_load_2035;
	nominal_voltage 120;
	parent nt_bus2035_l;
	constant_power_A 1310.3333333333333+475.58749369780804j;
	constant_power_B 1310.3333333333333+475.58749369780804j;
	constant_power_C 1310.3333333333333+475.58749369780804j;
};

object load {
	name nload_load_2037;
	nominal_voltage 120;
	parent nt_bus2037_l;
	constant_power_A 1313.6666666666665+431.7813528366332j;
	constant_power_B 1313.6666666666665+431.7813528366332j;
	constant_power_C 1313.6666666666665+431.7813528366332j;
};

object load {
	name nload_load_2040;
	nominal_voltage 120.0;
	parent nt_bus2040_l;
	constant_power_A 27253.333333333332+7948.88888888889j;
	constant_power_B 27253.333333333332+7948.88888888889j;
	constant_power_C 27253.333333333332+7948.88888888889j;
};

object load {
	name nload_load_2041;
	nominal_voltage 120;
	parent nt_bus2041_l;
	constant_power_A 639.6666666666667+129.88985658555143j;
	constant_power_B 639.6666666666667+129.88985658555143j;
	constant_power_C 639.6666666666667+129.88985658555143j;
};

object load {
	name nload_load_2042;
	nominal_voltage 120;
	parent nt_bus2042_l;
	constant_power_A 1407.6666666666665+681.7640829100836j;
	constant_power_B 1407.6666666666665+681.7640829100836j;
	constant_power_C 1407.6666666666665+681.7640829100836j;
};

object load {
	name nload_load_2043;
	nominal_voltage 120;
	parent nt_bus2043_l;
	constant_power_A 2169.6666666666665+543.7697236389088j;
	constant_power_B 2169.6666666666665+543.7697236389088j;
	constant_power_C 2169.6666666666665+543.7697236389088j;
};

object triplex_load {
	name nload_load_2045;
	nominal_voltage 120;
	parent nt_bus2045_l;
	phases BS;
	constant_power_12 2175+545.106382968794j;
};

object triplex_load {
	name nload_load_2046;
	nominal_voltage 120;
	parent nt_bus2046_l;
	phases BS;
	constant_power_12 6621+2820.534189037812j;
};

object triplex_load {
	name nload_load_2047;
	nominal_voltage 120;
	parent nt_bus2047_l;
	phases BS;
	constant_power_12 5512+1381.4374174363184j;
};

object triplex_load {
	name nload_load_2048;
	nominal_voltage 120;
	parent nt_bus2048_l;
	phases BS;
	constant_power_12 3764+1714.929064401919j;
};

object triplex_load {
	name nload_load_2049;
	nominal_voltage 120;
	parent nt_bus2049_l;
	phases CS;
	constant_power_12 3538+1284.122528137506j;
};

object triplex_load {
	name nload_load_2050;
	nominal_voltage 120;
	parent nt_bus2050_l;
	phases CS;
	constant_power_12 3747+533.9185829879607j;
};

object triplex_load {
	name nload_load_2051;
	nominal_voltage 120;
	parent nt_bus2051_l;
	phases CS;
	constant_power_12 5778+2461.417692834991j;
};

object load {
	name nload_load_2052;
	nominal_voltage 120;
	parent nt_bus2052_l;
	constant_power_A 13343.000000000002+5684.094197905382j;
	constant_power_B 13343.000000000002+5684.094197905382j;
	constant_power_C 13343.000000000002+5684.094197905382j;
};

object load {
	name nload_load_2053;
	nominal_voltage 120;
	parent nt_bus2053_l;
	constant_power_A 1426.6666666666667+650.0085366312624j;
	constant_power_B 1426.6666666666667+650.0085366312624j;
	constant_power_C 1426.6666666666667+650.0085366312624j;
};

object triplex_load {
	name nload_load_2054;
	nominal_voltage 120;
	parent nt_bus2054_l;
	phases AS;
	constant_power_12 7159+3467.2619485341866j;
};

object triplex_load {
	name nload_load_2055;
	nominal_voltage 120;
	parent nt_bus2055_l;
	phases AS;
	constant_power_12 4260+1242.5000000000002j;
};

object triplex_load {
	name nload_load_2056;
	nominal_voltage 120;
	parent nt_bus2056_l;
	phases AS;
	constant_power_12 4723+2011.9895748112954j;
};

object load {
	name nload_load_2058;
	nominal_voltage 120;
	parent nt_bus2058_l;
	constant_power_A 10493.333333333334+3808.571432614347j;
	constant_power_B 10493.333333333334+3808.571432614347j;
	constant_power_C 10493.333333333334+3808.571432614347j;
};

object triplex_load {
	name nload_load_2059;
	nominal_voltage 120;
	parent nt_bus2059_l;
	phases BS;
	constant_power_12 2635+1276.1887462477414j;
};

object triplex_load {
	name nload_load_2060;
	nominal_voltage 120;
	parent nt_bus2060_l;
	phases BS;
	constant_power_12 1946+639.6192686780677j;
};

object load {
	name nload_load_3002;
	nominal_voltage 120;
	parent nt_bus3002_l;
	constant_power_A 6548.333333333333+2376.727630041577j;
	constant_power_B 6548.333333333333+2376.727630041577j;
	constant_power_C 6548.333333333333+2376.727630041577j;
};

object load {
	name nload_load_3004;
	nominal_voltage 120;
	parent nt_bus3004_l;
	constant_power_A 1039+503.2106669265288j;
	constant_power_B 1039+503.2106669265288j;
	constant_power_C 1039+503.2106669265288j;
};

object load {
	name nload_load_3006;
	nominal_voltage 120;
	parent nt_bus3006_l;
	constant_power_A 1344.3333333333335+612.4963617368882j;
	constant_power_B 1344.3333333333335+612.4963617368882j;
	constant_power_C 1344.3333333333335+612.4963617368882j;
};

object load {
	name nload_load_3007;
	nominal_voltage 120;
	parent nt_bus3007_l;
	constant_power_A 3141.666666666667+1521.57861269892j;
	constant_power_B 3141.666666666667+1521.57861269892j;
	constant_power_C 3141.666666666667+1521.57861269892j;
};

object triplex_load {
	name nload_load_3009;
	nominal_voltage 120;
	parent nt_bus3009_l;
	phases AS;
	constant_power_12 4064+1606.1955754564235j;
};

object triplex_load {
	name nload_load_3010;
	nominal_voltage 120;
	parent nt_bus3010_l;
	phases AS;
	constant_power_12 4935+1950.4368023812622j;
};

object triplex_load {
	name nload_load_3011;
	nominal_voltage 120;
	parent nt_bus3011_l;
	phases AS;
	constant_power_12 7419+2438.5073763219857j;
};

object triplex_load {
	name nload_load_3012;
	nominal_voltage 120;
	parent nt_bus3012_l;
	phases AS;
	constant_power_12 3763+1365.7866233412758j;
};

object triplex_load {
	name nload_load_3013;
	nominal_voltage 120;
	parent nt_bus3013_l;
	phases BS;
	constant_power_12 2539+740.5416666666667j;
};

object triplex_load {
	name nload_load_3014;
	nominal_voltage 120;
	parent nt_bus3014_l;
	phases BS;
	constant_power_12 3105+1322.7244611029162j;
};

object triplex_load {
	name nload_load_3016;
	nominal_voltage 120;
	parent nt_bus3016_l;
	phases BS;
	constant_power_12 6246+3025.075866817227j;
};

object triplex_load {
	name nload_load_3017;
	nominal_voltage 120;
	parent nt_bus3017_l;
	phases BS;
	constant_power_12 8493+2477.1250000000005j;
};

object triplex_load {
	name nload_load_3018;
	nominal_voltage 120;
	parent nt_bus3018_l;
	phases CS;
	constant_power_12 5351+1942.1536597127736j;
};

object triplex_load {
	name nload_load_3019;
	nominal_voltage 120;
	parent nt_bus3019_l;
	phases CS;
	constant_power_12 5403+1775.8802202813977j;
};

object triplex_load {
	name nload_load_3020;
	nominal_voltage 120;
	parent nt_bus3020_l;
	phases CS;
	constant_power_12 5984+2726.390946169257j;
};

object triplex_load {
	name nload_load_3021;
	nominal_voltage 120;
	parent nt_bus3021_l;
	phases CS;
	constant_power_12 7730+3521.892047775461j;
};

object triplex_load {
	name nload_load_3023;
	nominal_voltage 120;
	parent nt_bus3023_l;
	phases AS;
	constant_power_12 4344+618.9864757138247j;
};

object triplex_load {
	name nload_load_3024;
	nominal_voltage 120;
	parent nt_bus3024_l;
	phases AS;
	constant_power_12 5020+1984.0309519663497j;
};

object triplex_load {
	name nload_load_3025;
	nominal_voltage 120;
	parent nt_bus3025_l;
	phases AS;
	constant_power_12 6546+1909.2500000000002j;
};

object triplex_load {
	name nload_load_3026;
	nominal_voltage 120;
	parent nt_bus3026_l;
	phases AS;
	constant_power_12 10273+2086.021620693126j;
};

object triplex_load {
	name nload_load_3027;
	nominal_voltage 120;
	parent nt_bus3027_l;
	phases AS;
	constant_power_12 7116+1444.9654290715746j;
};

object triplex_load {
	name nload_load_3028;
	nominal_voltage 120;
	parent nt_bus3028_l;
	phases AS;
	constant_power_12 11008+5331.417730055081j;
};

object triplex_load {
	name nload_load_3029;
	nominal_voltage 120;
	parent nt_bus3029_l;
	phases AS;
	constant_power_12 2494+1207.899329465604j;
};

object load {
	name nload_load_3031;
	nominal_voltage 120;
	parent nt_bus3031_l;
	constant_power_A 1423.6666666666667+289.0878465226108j;
	constant_power_B 1423.6666666666667+289.0878465226108j;
	constant_power_C 1423.6666666666667+289.0878465226108j;
};

object load {
	name nload_load_3032;
	nominal_voltage 120;
	parent nt_bus3032_l;
	constant_power_A 1902.9999999999998+921.6649655064332j;
	constant_power_B 1902.9999999999998+921.6649655064332j;
	constant_power_C 1902.9999999999998+921.6649655064332j;
};

object load {
	name nload_load_3033;
	nominal_voltage 120;
	parent nt_bus3033_l;
	constant_power_A 3259.6666666666665+1183.1010177743235j;
	constant_power_B 3259.6666666666665+1183.1010177743235j;
	constant_power_C 3259.6666666666665+1183.1010177743235j;
};

object load {
	name nload_load_3034;
	nominal_voltage 120;
	parent nt_bus3034_l;
	constant_power_A 1591.9999999999998+226.8477139356374j;
	constant_power_B 1591.9999999999998+226.8477139356374j;
	constant_power_C 1591.9999999999998+226.8477139356374j;
};

object load {
	name nload_load_3035;
	nominal_voltage 120;
	parent nt_bus3035_l;
	constant_power_A 3631+1193.4519859044522j;
	constant_power_B 3631+1193.4519859044522j;
	constant_power_C 3631+1193.4519859044522j;
};

object load {
	name nload_load_3036;
	nominal_voltage 120;
	parent nt_bus3036_l;
	constant_power_A 1341.9999999999998+391.4166666666667j;
	constant_power_B 1341.9999999999998+391.4166666666667j;
	constant_power_C 1341.9999999999998+391.4166666666667j;
};

object load {
	name nload_load_3037;
	nominal_voltage 120;
	parent nt_bus3037_l;
	constant_power_A 2434.3333333333335+962.110095764293j;
	constant_power_B 2434.3333333333335+962.110095764293j;
	constant_power_C 2434.3333333333335+962.110095764293j;
};

object load {
	name nload_load_3038;
	nominal_voltage 120;
	parent nt_bus3038_l;
	constant_power_A 2043.3333333333335+595.9722222222224j;
	constant_power_B 2043.3333333333335+595.9722222222224j;
	constant_power_C 2043.3333333333335+595.9722222222224j;
};

object load {
	name nload_load_3039;
	nominal_voltage 120;
	parent nt_bus3039_l;
	constant_power_A 1655.3333333333333+336.12976956948836j;
	constant_power_B 1655.3333333333333+336.12976956948836j;
	constant_power_C 1655.3333333333333+336.12976956948836j;
};

object triplex_load {
	name nload_load_3041;
	nominal_voltage 120;
	parent nt_bus3041_l;
	phases CS;
	constant_power_12 5252+1316.2752751044166j;
};

object triplex_load {
	name nload_load_3042;
	nominal_voltage 120;
	parent nt_bus3042_l;
	phases CS;
	constant_power_12 7719+1099.897929566071j;
};

object triplex_load {
	name nload_load_3043;
	nominal_voltage 120;
	parent nt_bus3043_l;
	phases CS;
	constant_power_12 6856+1718.2755685673799j;
};

object triplex_load {
	name nload_load_3044;
	nominal_voltage 120;
	parent nt_bus3044_l;
	phases CS;
	constant_power_12 4119+1754.6866522650278j;
};

object triplex_load {
	name nload_load_3045;
	nominal_voltage 120;
	parent nt_bus3045_l;
	phases CS;
	constant_power_12 4434+1111.2651503832792j;
};

object load {
	name nload_load_3047;
	nominal_voltage 120;
	parent nt_bus3047_l;
	constant_power_A 3404.333333333333+1235.6080063942288j;
	constant_power_B 3404.333333333333+1235.6080063942288j;
	constant_power_C 3404.333333333333+1235.6080063942288j;
};

object load {
	name nload_load_3048;
	nominal_voltage 120;
	parent nt_bus3048_l;
	constant_power_A 956+136.22262218748074j;
	constant_power_B 956+136.22262218748074j;
	constant_power_C 956+136.22262218748074j;
};

object load {
	name nload_load_3049;
	nominal_voltage 120;
	parent nt_bus3049_l;
	constant_power_A 557+237.28100638786609j;
	constant_power_B 557+237.28100638786609j;
	constant_power_C 557+237.28100638786609j;
};

object load {
	name nload_load_3050;
	nominal_voltage 120;
	parent nt_bus3050_l;
	constant_power_A 882+375.73042663213266j;
	constant_power_B 882+375.73042663213266j;
	constant_power_C 882+375.73042663213266j;
};

object load {
	name nload_load_3051;
	nominal_voltage 120;
	parent nt_bus3051_l;
	constant_power_A 803.9999999999999+366.31322204546836j;
	constant_power_B 803.9999999999999+366.31322204546836j;
	constant_power_C 803.9999999999999+366.31322204546836j;
};

object load {
	name nload_load_3052;
	nominal_voltage 120;
	parent nt_bus3052_l;
	constant_power_A 2033.6666666666665+984.9497205385794j;
	constant_power_B 2033.6666666666665+984.9497205385794j;
	constant_power_C 2033.6666666666665+984.9497205385794j;
};

object load {
	name nload_load_3054;
	nominal_voltage 120;
	parent nt_bus3054_l;
	constant_power_A 823.6666666666666+350.8805306908541j;
	constant_power_B 823.6666666666666+350.8805306908541j;
	constant_power_C 823.6666666666666+350.8805306908541j;
};

object triplex_load {
	name nload_load_3056;
	nominal_voltage 120;
	parent nt_bus3056_l;
	phases BS;
	constant_power_12 3796+1377.7640239711623j;
};

object triplex_load {
	name nload_load_3057;
	nominal_voltage 120;
	parent nt_bus3057_l;
	phases BS;
	constant_power_12 3679+1781.8210236984596j;
};

object triplex_load {
	name nload_load_3058;
	nominal_voltage 120;
	parent nt_bus3058_l;
	phases BS;
	constant_power_12 3475+1142.1772654965496j;
};

object triplex_load {
	name nload_load_3059;
	nominal_voltage 120;
	parent nt_bus3059_l;
	phases BS;
	constant_power_12 4366+1989.208367475765j;
};

object triplex_load {
	name nload_load_3060;
	nominal_voltage 120;
	parent nt_bus3060_l;
	phases BS;
	constant_power_12 3630+1193.1233017992731j;
};

object triplex_load {
	name nload_load_3061;
	nominal_voltage 120;
	parent nt_bus3061_l;
	phases BS;
	constant_power_12 1283+374.20833333333337j;
};

object triplex_load {
	name nload_load_3062;
	nominal_voltage 120;
	parent nt_bus3062_l;
	phases BS;
	constant_power_12 929+423.2649045774131j;
};

object triplex_load {
	name nload_load_3063;
	nominal_voltage 120;
	parent nt_bus3063_l;
	phases BS;
	constant_power_12 6523+2367.532857840856j;
};

object triplex_load {
	name nload_load_3064;
	nominal_voltage 120;
	parent nt_bus3064_l;
	phases BS;
	constant_power_12 7792+2272.666666666667j;
};

object triplex_load {
	name nload_load_3065;
	nominal_voltage 120;
	parent nt_bus3065_l;
	phases BS;
	constant_power_12 2813+1020.9826658142463j;
};

object triplex_load {
	name nload_load_3066;
	nominal_voltage 120;
	parent nt_bus3066_l;
	phases BS;
	constant_power_12 3257+1577.4370954568856j;
};

object triplex_load {
	name nload_load_3067;
	nominal_voltage 120;
	parent nt_bus3067_l;
	phases BS;
	constant_power_12 6204+2039.1561885296667j;
};

object load {
	name nload_load_3070;
	nominal_voltage 120;
	parent nt_bus3070_l;
	constant_power_A 281.6666666666667+40.13532627211341j;
	constant_power_B 281.6666666666667+40.13532627211341j;
	constant_power_C 281.6666666666667+40.13532627211341j;
};

object load {
	name nload_load_3071;
	nominal_voltage 120;
	parent nt_bus3071_l;
	constant_power_A 721+236.98123983396033j;
	constant_power_B 721+236.98123983396033j;
	constant_power_C 721+236.98123983396033j;
};

object load {
	name nload_load_3072;
	nominal_voltage 120;
	parent nt_bus3072_l;
	constant_power_A 654.6666666666666+93.28494769045055j;
	constant_power_B 654.6666666666666+93.28494769045055j;
	constant_power_C 654.6666666666666+93.28494769045055j;
};

object load {
	name nload_load_3073;
	nominal_voltage 120;
	parent nt_bus3073_l;
	constant_power_A 765.6666666666667+348.8480394023387j;
	constant_power_B 765.6666666666667+348.8480394023387j;
	constant_power_C 765.6666666666667+348.8480394023387j;
};

object load {
	name nload_load_3074;
	nominal_voltage 120;
	parent nt_bus3074_l;
	constant_power_A 1597.0000000000002+727.6146960281258j;
	constant_power_B 1597.0000000000002+727.6146960281258j;
	constant_power_C 1597.0000000000002+727.6146960281258j;
};

object load {
	name nload_load_3077;
	nominal_voltage 120;
	parent nt_bus3077_l;
	constant_power_A 13679+5406.286731463685j;
	constant_power_B 13679+5406.286731463685j;
	constant_power_C 13679+5406.286731463685j;
};

object load {
	name nload_load_3078;
	nominal_voltage 120;
	parent nt_bus3078_l;
	constant_power_A 1337.3333333333333+609.3070675150991j;
	constant_power_B 1337.3333333333333+609.3070675150991j;
	constant_power_C 1337.3333333333333+609.3070675150991j;
};

object load {
	name nload_load_3081;
	nominal_voltage 120;
	parent nt_bus3081_l;
	constant_power_A 527+132.0786500342779j;
	constant_power_B 527+132.0786500342779j;
	constant_power_C 527+132.0786500342779j;
};

object triplex_load {
	name nload_load_3083;
	nominal_voltage 120;
	parent nt_bus3083_l;
...